# =============================================================================
# FANET Scenario 1: Reconnaissance (3D Gauss-Markov)
# -----------------------------------------------------------------------------
# Area:       3600 x 1200 x 200 m
# Mobility:   BonnMotion Gauss-Markov traces (pre-generated under
#             /home/mint/traces/bonnmotion/recon_n<N>_s<S>_seed<R>.movements)
# Traffic:    All-to-one CBR -> groundStation
# Sweeps:     numNodes in {10,30,50} @ 30 m/s   and   maxSpeed in {10,30,50} @ 30 nodes
# Protocols:  StabilityZrp, Zrp-k1, Zrp-k2, Zrp-k3, Aodv, Dsdv   (6 per sweep)
# Repeat:     10 seeds per (protocol, sweep-point)
# =============================================================================

[General]
network = FanetReconNetwork
sim-time-limit = 500s
warmup-period = 100s
repeat = 10

# ---------------------------------------------------------------------------
# RNGs: give the mobility model its own global RNG so that, at a fixed
# (numNodes, repetition), UAV trajectories are identical across every routing
# protocol we compare. Protocol/MAC/app code consumes RNG 0; mobility consumes
# RNG 1 (both the top-level SuperpositioningMobility and its children).
# ---------------------------------------------------------------------------
num-rngs = 2
**.mobility.rng-0 = 1
**.mobility.element[*].rng-0 = 1

# ---------------------------------------------------------------------------
# Routing / ARP
# ---------------------------------------------------------------------------
*.configurator.addStaticRoutes = false
**.netmaskRoutes = ""
**.arp.typename = "GlobalArp"
**.forwarding = true

# This INET build has no OSG runtime -- disable the OSG visualizer path.
*.visualizer.osgVisualizer.typename = ""

# ---------------------------------------------------------------------------
# MAC: IEEE 802.11g ad-hoc mode
# ---------------------------------------------------------------------------
*.uav[*].wlan[0].opMode = "g(mixed)"
*.groundStation.wlan[0].opMode = "g(mixed)"
**.wlan[*].bitrate = 24Mbps

# ---------------------------------------------------------------------------
# Propagation: Friis free-space at 2.4 GHz, calibrated for ~500 m range.
#   PL(500 m) = 20*log10(4*pi*500 / 0.125) ≈ 94 dB
#   With sensitivity = -85 dBm, TX power must be ≈ 94 - 85 = 9 dBm ≈ 8 mW.
# ---------------------------------------------------------------------------
*.radioMedium.pathLoss.typename = "FreeSpacePathLoss"
**.transmitter.power = 8mW
**.receiver.sensitivity = -85dBm
**.displayCommunicationRanges = true

# ---------------------------------------------------------------------------
# Constraint area (3D).
# The traces were generated with a 3600 x 1200 x 200 m bounding box (see the
# .params sidecars); INET rejects positions outside the constraint area, so
# bounds must match the trace generation extents, not the nominal 3600x1200.
# ---------------------------------------------------------------------------
**.constraintAreaMinX = 0m
**.constraintAreaMinY = 0m
**.constraintAreaMinZ = 0m
**.constraintAreaMaxX = 3600m
**.constraintAreaMaxY = 1200m
**.constraintAreaMaxZ = 200m

# ---------------------------------------------------------------------------
# Mobility: 3D superposition of 2D Gauss-Markov (horizontal) + per-UAV fixed
# altitude. INET 4.5's GaussMarkovMobility is strictly 2D (see its `angle`
# parameter and `Coord direction(cos, sin)` in GaussMarkovMobility.cc:78),
# so we compose it with a StationaryMobility that contributes only a random
# z offset. The result: Gauss-Markov horizontal trajectories stratified
# across a 50-200 m altitude band, reproducible via RNG 1.
#
# (This is not true 3D Gauss-Markov -- altitude is static per UAV rather than
# Markov-driven. If altitude dynamics matter to the evaluation, a custom
# `GaussMarkov3DMobility` C++ module would need to be added under SA-ZRP/src/.)
# ---------------------------------------------------------------------------
*.uav[*].mobility.typename = "SuperpositioningMobility"
*.uav[*].mobility.numElements = 2

# element[0]: 2D Gauss-Markov horizontal motion. Speed is bound per sweep.
*.uav[*].mobility.element[0].typename = "GaussMarkovMobility"
*.uav[*].mobility.element[0].alpha = 0.85
*.uav[*].mobility.element[0].speedStdDev = 2mps
*.uav[*].mobility.element[0].angleStdDev = 30deg
*.uav[*].mobility.element[0].margin = 50m
*.uav[*].mobility.element[0].updateInterval = 0.5s
*.uav[*].mobility.element[0].initialX = uniform(0m, 3600m)
*.uav[*].mobility.element[0].initialY = uniform(0m, 1200m)
*.uav[*].mobility.element[0].initialZ = 0m

# element[1]: per-UAV fixed altitude offset.
*.uav[*].mobility.element[1].typename = "StationaryMobility"
*.uav[*].mobility.element[1].initialX = 0m
*.uav[*].mobility.element[1].initialY = 0m
*.uav[*].mobility.element[1].initialZ = uniform(50m, 200m)

*.groundStation.mobility.typename = "StationaryMobility"
*.groundStation.mobility.initialX = 1800m
*.groundStation.mobility.initialY = 600m
*.groundStation.mobility.initialZ = 0m

# ---------------------------------------------------------------------------
# Statistics recording
#   Rely on each @statistic's declared recording modes (INET's UdpSink already
#   emits endToEndDelay as histogram+vector, UdpBasicApp emits packetSent as
#   scalar counts, etc.). A blanket `+vector` here would crash: packet-typed
#   signals cannot be coerced to a double by the vector recorder.
# ---------------------------------------------------------------------------
**.scalar-recording = true
**.vector-recording = true
# ZRP emits its own @signal/@statistic declarations internally -- no toggle.
# TODO: add custom signal for route rediscovery count (ZRP / AODV / DSDV)

# =============================================================================
# Scenario-wide base: all-to-one traffic template (ZRP slot left abstract)
# Each protocol config below sets numApps / typename appropriately.
# =============================================================================
[Config ReconBase]
description = "Scenario 1 base: all-to-one CBR to groundStation"
# UAV traffic app defaults (the routing app at index 1 is added per protocol)
*.uav[*].app[0].typename = "UdpBasicApp"
*.uav[*].app[0].destAddresses = "groundStation"
*.uav[*].app[0].destPort = 5000
*.uav[*].app[0].messageLength = 512B
*.uav[*].app[0].sendInterval = 0.25s
*.uav[*].app[0].startTime = uniform(100s, 101s)

# Ground station sink
*.groundStation.app[0].typename = "UdpSink"
*.groundStation.app[0].localPort = 5000

# Default ZRP parameters (only bind to ZRP slots; non-ZRP apps ignore them).
**.app[*].zoneRadius = 2
**.app[*].NDP_helloInterval = 1s
**.app[*].IARP_updateInterval = 1s
**.app[*].linkStateLifetime = 3s

# =============================================================================
# Sweep bases (pick exactly one axis per run)
# =============================================================================
[Config ReconNodeSweep]
extends = ReconBase
description = "Node-count sweep @ 30 m/s"
*.numUavs = ${numNodes=10,30,50}
*.uav[*].mobility.element[0].speed = 30mps

[Config ReconSpeedSweep]
extends = ReconBase
description = "Speed sweep @ 30 nodes"
*.numUavs = 30
*.uav[*].mobility.element[0].speed = ${maxSpeed=10,30,50}mps

# =============================================================================
# Protocol configs -- 6 protocols x 2 sweeps = 12 leaf configs
# -----------------------------------------------------------------------------
# ZRP install pattern: AdhocHost with numApps=2 (UdpBasicApp + sa_zrp.Zrp).
# AODV / DSDV: switch uav typename to AodvRouter / DsdvRouter, numApps=1.
# Ground station mirrors UAV host type so it participates in routing.
# =============================================================================

# ----- StabilityZRP (PLACEHOLDER: same module as Zrp-k2 until the stability-
#       based zone logic lands in src/Zrp.cc) ---------------------------------
[Config Recon_NodeSweep_StabilityZrp]
extends = ReconNodeSweep
description = "StabilityZRP (PLACEHOLDER = ZRP k=2) -- node sweep"
# PLACEHOLDER: StabilityZRP uses same ZRP module with k=2 until stability-based zone logic is implemented
*.uav[*].typename = "AdhocHost"
*.uav[*].numApps = 2
*.uav[*].app[1].typename = "sa_zrp.Zrp"
*.groundStation.typename = "AdhocHost"
*.groundStation.numApps = 2
*.groundStation.app[1].typename = "sa_zrp.Zrp"
**.app[*].zoneRadius = 2

[Config Recon_SpeedSweep_StabilityZrp]
extends = ReconSpeedSweep
description = "StabilityZRP (PLACEHOLDER = ZRP k=2) -- speed sweep"
# PLACEHOLDER: StabilityZRP uses same ZRP module with k=2 until stability-based zone logic is implemented
*.uav[*].typename = "AdhocHost"
*.uav[*].numApps = 2
*.uav[*].app[1].typename = "sa_zrp.Zrp"
*.groundStation.typename = "AdhocHost"
*.groundStation.numApps = 2
*.groundStation.app[1].typename = "sa_zrp.Zrp"
**.app[*].zoneRadius = 2

# ----- Standard ZRP, k=1 ----------------------------------------------------
[Config Recon_NodeSweep_Zrp_k1]
extends = ReconNodeSweep
description = "Standard ZRP, zoneRadius=1 -- node sweep"
*.uav[*].typename = "AdhocHost"
*.uav[*].numApps = 2
*.uav[*].app[1].typename = "sa_zrp.Zrp"
*.groundStation.typename = "AdhocHost"
*.groundStation.numApps = 2
*.groundStation.app[1].typename = "sa_zrp.Zrp"
**.app[*].zoneRadius = 1

[Config Recon_SpeedSweep_Zrp_k1]
extends = ReconSpeedSweep
description = "Standard ZRP, zoneRadius=1 -- speed sweep"
*.uav[*].typename = "AdhocHost"
*.uav[*].numApps = 2
*.uav[*].app[1].typename = "sa_zrp.Zrp"
*.groundStation.typename = "AdhocHost"
*.groundStation.numApps = 2
*.groundStation.app[1].typename = "sa_zrp.Zrp"
**.app[*].zoneRadius = 1

# ----- Standard ZRP, k=2 ----------------------------------------------------
[Config Recon_NodeSweep_Zrp_k2]
extends = ReconNodeSweep
description = "Standard ZRP, zoneRadius=2 -- node sweep"
*.uav[*].typename = "AdhocHost"
*.uav[*].numApps = 2
*.uav[*].app[1].typename = "sa_zrp.Zrp"
*.groundStation.typename = "AdhocHost"
*.groundStation.numApps = 2
*.groundStation.app[1].typename = "sa_zrp.Zrp"
**.app[*].zoneRadius = 2

[Config Recon_SpeedSweep_Zrp_k2]
extends = ReconSpeedSweep
description = "Standard ZRP, zoneRadius=2 -- speed sweep"
*.uav[*].typename = "AdhocHost"
*.uav[*].numApps = 2
*.uav[*].app[1].typename = "sa_zrp.Zrp"
*.groundStation.typename = "AdhocHost"
*.groundStation.numApps = 2
*.groundStation.app[1].typename = "sa_zrp.Zrp"
**.app[*].zoneRadius = 2

# ----- Standard ZRP, k=3 ----------------------------------------------------
[Config Recon_NodeSweep_Zrp_k3]
extends = ReconNodeSweep
description = "Standard ZRP, zoneRadius=3 -- node sweep"
*.uav[*].typename = "AdhocHost"
*.uav[*].numApps = 2
*.uav[*].app[1].typename = "sa_zrp.Zrp"
*.groundStation.typename = "AdhocHost"
*.groundStation.numApps = 2
*.groundStation.app[1].typename = "sa_zrp.Zrp"
**.app[*].zoneRadius = 3

[Config Recon_SpeedSweep_Zrp_k3]
extends = ReconSpeedSweep
description = "Standard ZRP, zoneRadius=3 -- speed sweep"
*.uav[*].typename = "AdhocHost"
*.uav[*].numApps = 2
*.uav[*].app[1].typename = "sa_zrp.Zrp"
*.groundStation.typename = "AdhocHost"
*.groundStation.numApps = 2
*.groundStation.app[1].typename = "sa_zrp.Zrp"
**.app[*].zoneRadius = 3

# ----- AODV (reactive) ------------------------------------------------------
[Config Recon_NodeSweep_Aodv]
extends = ReconNodeSweep
description = "AODV -- node sweep"
*.uav[*].typename = "AodvRouter"
*.uav[*].numApps = 1
*.groundStation.typename = "AodvRouter"
*.groundStation.numApps = 1

[Config Recon_SpeedSweep_Aodv]
extends = ReconSpeedSweep
description = "AODV -- speed sweep"
*.uav[*].typename = "AodvRouter"
*.uav[*].numApps = 1
*.groundStation.typename = "AodvRouter"
*.groundStation.numApps = 1

# ----- DSDV (proactive) -----------------------------------------------------
[Config Recon_NodeSweep_Dsdv]
extends = ReconNodeSweep
description = "DSDV -- node sweep"
*.uav[*].typename = "DsdvRouter"
*.uav[*].numApps = 1
*.groundStation.typename = "DsdvRouter"
*.groundStation.numApps = 1
# DSDV defaults (5s/5s) are sluggish at 30 m/s -- tighten if PDR collapses.
# **.dsdv.helloInterval = 2s
# **.dsdv.routeLifetime = 5s

[Config Recon_SpeedSweep_Dsdv]
extends = ReconSpeedSweep
description = "DSDV -- speed sweep"
*.uav[*].typename = "DsdvRouter"
*.uav[*].numApps = 1
*.groundStation.typename = "DsdvRouter"
*.groundStation.numApps = 1
